reduced_networks/ieee123/57pct/dss/Shunts.dss
! Kron-equivalent grounded shunts
new Reactor.sh_3 phases=3 bus1=149.1.2.3 bus2=149.0.0.0 rmatrix=[-809.1603249774128 | -2279.95293007447 -6424.172321474543 | -596.6094659018543 -1681.053133604677 -439.8916306396167] xmatrix=[-5387678.104381707 | -1864218.853786813 -5252767.723268605 | -1099212.482735463 -1374524.40554614 -5330404.422613046]
new Reactor.sh_4 phases=3 bus1=1.1.2.3 bus2=1.0.0.0 rmatrix=[0.006143471795543144 | 0.007414257131252332 -0.008219863302195528 | 0.003202192803466551 0.003284827143598773 0.001649518049923043] xmatrix=[-2937618.962275382 | -711071.526166094 -2046833.096845284 | -410645.0869178956 -410776.1562275123 -2260850.721505281]
new Reactor.sh_5 phases=1 bus1=3.3 bus2=3.0 rmatrix=[0.02843902845264138] xmatrix=[-1298166.715694254]
new Reactor.sh_6 phases=3 bus1=7.1.2.3 bus2=7.0.0.0 rmatrix=[0.08202644123835975 | 0.04293154604905675 -0.01868219839491821 | 0.03452879213718719 0.04152077999900763 0.1327635950362676] xmatrix=[-4310142.968079567 | -1491377.233677503 -4202220.503747123 | -879370.5046637448 -1099621.170640434 -4264324.068801195]
new Reactor.sh_7 phases=3 bus1=8.1.2.3 bus2=8.0.0.0 rmatrix=[-0.05494856650214961 | 0.001763232159976555 0.006282405284149473 | -0.0007628281446116925 0.02321744436483194 0.1191624974366808] xmatrix=[-2925815.957248629 | -592074.9765960451 -2275623.621790843 | -506248.9046100614 -567591.9461635151 -4101262.139865089]
new Reactor.sh_8 phases=1 bus1=9.1 bus2=9.0 rmatrix=[0.1915902135679947] xmatrix=[-10385359.94939817]
new Reactor.sh_9 phases=3 bus1=13.1.2.3 bus2=13.0.0.0 rmatrix=[-825.7691560620449 | -248.3640746743955 -80.54718910316814 | -328.9029081005455 -138.3978283578509 -397.4842070788326] xmatrix=[-1846353.275143672 | -524103.5290270805 -1873118.626832735 | -524652.9647583426 -377526.0589196461 -1692288.834376141]
new Reactor.sh_10 phases=1 bus1=9r.1 bus2=9r.0 rmatrix=[0.05369801179098418] xmatrix=[-5498117.239415294]
new Reactor.sh_11 phases=1 bus1=14.1 bus2=14.0 rmatrix=[-0.004776463068144083] xmatrix=[-1639789.535016738]
new Reactor.sh_12 phases=1 bus1=34.3 bus2=34.0 rmatrix=[0.02394865461724365] xmatrix=[-1298166.688752017]
new Reactor.sh_13 phases=3 bus1=18.1.2.3 bus2=18.0.0.0 rmatrix=[-234.7528465411864 | -122.6112864656859 -332.3000537721641 | -161.7382267237572 -116.3900849473033 -306.9186304409448] xmatrix=[-1294998.830519941 | -261604.7319907974 -1169167.83162422 | -450094.351711293 -228229.8314470239 -1526302.929345229]
new Reactor.sh_14 phases=1 bus1=19.1 bus2=19.0 rmatrix=[0.01197432835454275] xmatrix=[-2596333.479285822]
new Reactor.sh_15 phases=3 bus1=23.1.2.3 bus2=23.0.0.0 rmatrix=[0.02726432031032689 | 0.006865468413991114 0.03311216999732807 | 0.00736872447233948 0.0009922304553286337 0.02444394392057954] xmatrix=[-2326025.912242921 | -348870.1664864223 -1559518.552320974 | -384937.441975798 -147659.9436188654 -1162903.199700363]
new Reactor.sh_16 phases=3 bus1=25.1.2.3 bus2=25.0.0.0 rmatrix=[0.05382480242610534 | 0.009423518490876481 0.04712450718453402 | 0.01961471407738689 0.03255404454260874 0.06123141446024951] xmatrix=[-884677.6387091973 | -231499.1077139859 -897752.3589595923 | -313973.9574338987 -185130.5311738367 -907398.297663979]
new Reactor.sh_17 phases=2 bus1=25r.1.3 bus2=25r.0.0 rmatrix=[0.03168869465933379 | 0.01105682777189332 0.03165591965164317] xmatrix=[-981579.837611302 | -115480.4010542692 -955769.4521881946]
new Reactor.sh_18 phases=3 bus1=35.1.2.3 bus2=35.0.0.0 rmatrix=[0.01403436077033233 | -0.002223115442635188 0.02365555137943018 | 0.01058550636636783 0.01134082192020856 0.01325846202562145] xmatrix=[-757881.3939605859 | -88534.85772594364 -635351.9920676957 | -91387.7637755277 -136671.4393344188 -1713711.512441797]
new Reactor.sh_19 phases=3 bus1=42.1.2.3 bus2=42.0.0.0 rmatrix=[0.02471394747635247 | -0.008187743171618835 -0.001569379129326356 | 0.02915255088446585 0.0554811715313745 0.03758246374341559] xmatrix=[-1409083.856243123 | -260492.3537657252 -1102535.023984944 | -185385.7512162931 -211110.6845115414 -1655053.175853771]
new Reactor.sh_20 phases=3 bus1=47.1.2.3 bus2=47.0.0.0 rmatrix=[0.01894931491333221 | 0.002049822854882211 0.01030586827240898 | 0.006554402975754575 -0.001022194064959625 0.01241606637623693] xmatrix=[-549340.1002115812 | 53901.94141233808 -602127.4659163425 | -51400.64576335475 -179105.0259093504 -637968.3262694133]
new Reactor.sh_21 phases=3 bus1=52.1.2.3 bus2=52.0.0.0 rmatrix=[0.04906891661059781 | 0.02244051645817751 0.0168878648731791 | 0.01838913750301444 0.02683253820575484 0.01347670850012475] xmatrix=[-3591786.034725453 | -1242814.389973385 -3501850.271306174 | -732808.7896420019 -916350.9134391366 -3553603.208384067]
new Reactor.sh_22 phases=3 bus1=53.1.2.3 bus2=53.0.0.0 rmatrix=[3959.230213215814 | 14053.30695758952 -2067.813036615252 | -8297.196744495928 -11785.00736455147 6986.039523107452] xmatrix=[-1447265.329302286 | -495712.9413089324 -1410484.15371786 | -297282.3916506797 -371058.1240001381 -1437046.286041783]
new Reactor.sh_23 phases=3 bus1=57.1.2.3 bus2=57.0.0.0 rmatrix=[3754.633576341304 | -8813.438468324826 3573.255883903737 | 5311.778215730968 5205.868650485259 -6312.987131318203] xmatrix=[-1383474.90604657 | -189019.500242017 -883467.2063941545 | -321073.0834167696 -302699.8066401618 -1322640.469679262]
new Reactor.sh_24 phases=3 bus1=60.1.2.3 bus2=60.0.0.0 rmatrix=[-22.76067234770651 | -1.662605064623951 -0.2387401503719211 | -3.046308173597838 -1.835881545399241 -22.59963884772699] xmatrix=[-441168.6685643772 | -30090.04833737857 -440999.742846643 | -29709.63222980694 -33833.31854727391 -439597.8702296983]
new Reactor.sh_25 phases=3 bus1=61.1.2.3 bus2=61.0.0.0 rmatrix=[-1912.949755699964 | -1221.412262254898 -2001.336637060913 | -570.7546779267221 -522.4412850441494 -190.7343465072613] xmatrix=[-3820199.403533487 | -1355796.682864476 -3918310.94560686 | -999655.2809649153 -799427.4710520077 -3876658.0666833]
new Reactor.sh_26 phases=3 bus1=62.1.2.3 bus2=62.0.0.0 rmatrix=[0.01094750256623742 | 0.003466708932561405 0.01036363570892718 | 0.003028808824428888 0.003831625694147078 0.01036363573075505] xmatrix=[-202696.7539625723 | 0.001952305106749874 -202696.7541815224 | 0.001441421556793763 0.001934059331688331 -202696.7539625723]
new Reactor.sh_27 phases=3 bus1=64.1.2.3 bus2=64.0.0.0 rmatrix=[0.003594278496780184 | 0.001080712096040105 0.003545707138982834 | 0.001056426420838149 0.001153569097368745 0.003448564493737649] xmatrix=[-165357.8806705927 | 0.0006192845578604653 -165357.8806948784 | 0.000467499133463086 0.0006374987824528944 -165357.8806705927]
new Reactor.sh_28 phases=3 bus1=65.1.2.3 bus2=65.0.0.0 rmatrix=[0.008439957959989822 | 0.002930277350852223 0.008534788936231053 | 0.002825963280542498 0.003006142130288936 0.008439957932750985] xmatrix=[-146130.2173055294 | 0.001569453248797349 -146130.21755209 | 0.001194870821233982 0.001562340958116692 -146130.2172960462]
new Reactor.sh_29 phases=3 bus1=67.1.2.3 bus2=67.0.0.0 rmatrix=[0.02399645139322172 | 0.00938972618533972 -0.01417378926645139 | 0.01424178825408672 -0.000595403525760093 -0.02400733282937654] xmatrix=[-1631728.280696672 | -339543.7098912747 -2411729.518509518 | -479379.2452756637 -712310.0630975121 -2319013.950140173]
new Reactor.sh_30 phases=3 bus1=72.1.2.3 bus2=72.0.0.0 rmatrix=[0.0001189771610448392 | 0.008118322214722031 -0.04654778831566773 | -0.004719535260518852 0.009342972060815944 0.004345619239336105] xmatrix=[-4385066.574620559 | -785014.5590512929 -4346249.712966497 | -761221.5627716207 -1032417.845864227 -2909020.739827772]
new Reactor.sh_31 phases=3 bus1=97.1.2.3 bus2=97.0.0.0 rmatrix=[-5.531612391929276 | -12.24951870474006 -39.88115913357393 | -18.28402610821065 -32.85377092355443 -65.01455378194036] xmatrix=[-520039.4011586962 | -107240.2681956611 -525627.1111800683 | -134100.0945245745 -181875.2255087415 -512465.7940810259]
new Reactor.sh_32 phases=1 bus1=69.1 bus2=69.0 rmatrix=[0.008393038887798909] xmatrix=[-2173674.508740686]
new Reactor.sh_33 phases=1 bus1=71.1 bus2=71.0 rmatrix=[0.02020667822324539] xmatrix=[-3894500.133611646]
new Reactor.sh_34 phases=1 bus1=73.3 bus2=73.0 rmatrix=[0.02482996625342366] xmatrix=[-3738720.17120233]
new Reactor.sh_35 phases=3 bus1=76.1.2.3 bus2=76.0.0.0 rmatrix=[-335.6635486889065 | 625.7294379381404 214.423508751595 | -2965.56917930843 2946.190491209418 -129.5979856697356] xmatrix=[-840291.865932783 | -175444.5329786288 -840508.2680148972 | -251520.6880874078 -257124.3301457461 -821178.9060417081]
new Reactor.sh_36 phases=1 bus1=74.3 bus2=74.0 rmatrix=[0.01833498192504035] xmatrix=[-2031913.120828261]
new Reactor.sh_37 phases=3 bus1=80.1.2.3 bus2=80.0.0.0 rmatrix=[0.03231551135028573 | 0.005638630520927673 -0.004859712706521788 | 0.009982156821552223 0.01300188081247016 0.003005468372000553] xmatrix=[-1560776.028245491 | -318434.9649211935 -1544184.104770839 | -540053.0036439918 -398191.4758543591 -1521695.505913938]
new Reactor.sh_38 phases=3 bus1=81.1.2.3 bus2=81.0.0.0 rmatrix=[0.008351641149506015 | 0.02755746275585494 0.01566202976180826 | 0.006165879958896306 0.02138280587086273 0.004537864870528008] xmatrix=[-4704513.173378699 | -764515.1380657832 -4817747.16384762 | -722604.8049886556 -532790.3824841117 -2036067.260792608]
new Reactor.sh_39 phases=3 bus1=82.1.2.3 bus2=82.0.0.0 rmatrix=[8369.668139669331 | -1469.648900016887 7552.213225086935 | -4010.811858833237 -2466.670923801469 9338.269760013522] xmatrix=[-17566.63599859329 | 3914.715083519789 -16966.0341039188 | 6002.816132530565 4767.012240844262 -18195.20548976108]
new Reactor.sh_40 phases=1 bus1=84.3 bus2=84.0 rmatrix=[0.004591339941979231] xmatrix=[-1437969.28431149]
new Reactor.sh_41 phases=3 bus1=87.1.2.3 bus2=87.0.0.0 rmatrix=[81767.51358966641 | 1803.805672924273 40516.40480520706 | 4092.27294593125 -3676.325191072759 29104.80293125363] xmatrix=[-133997.3539110566 | -1023.331676317952 -67684.59216916347 | -2128.491872472338 5154.60597079432 -48904.64581596282]
new Reactor.sh_42 phases=3 bus1=197.1.2.3 bus2=197.0.0.0 rmatrix=[-18421.70940416093 | -6784.605295264241 -11442.33728871937 | -9281.220372611924 -9730.478694388979 -18607.64681960205] xmatrix=[-8528605.211334506 | -1758720.375639668 -8620265.948523307 | -2199212.445575404 -2982728.347822269 -8404396.780245818]
new Reactor.sh_43 phases=3 bus1=101.1.2.3 bus2=101.0.0.0 rmatrix=[0.0004376206744354215 | -0.004487694096742403 -0.01297798447910782 | -0.003554413291123384 -0.02423870555121448 -0.03355751051023376] xmatrix=[-3928332.301713734 | -657209.2100381907 -3860382.027994409 | -539268.8860574706 -731391.2995760039 -2060824.999408783]
new Reactor.sh_44 phases=3 bus1=105.1.2.3 bus2=105.0.0.0 rmatrix=[77722.36363263612 | 23269.49458409842 6105.962633401548 | 31696.96384901922 8387.210176190454 11514.32339642144] xmatrix=[-843634.2625224274 | -163419.9606425866 -600004.3792685284 | -229843.783336681 -218526.0108448247 -719461.5681837266]
new Reactor.sh_45 phases=1 bus1=103.3 bus2=103.0 rmatrix=[0.006207491739977209] xmatrix=[-1869360.076289928]
new Reactor.sh_46 phases=1 bus1=104.3 bus2=104.0 rmatrix=[0] xmatrix=[-3338142.999709046]
new Reactor.sh_47 phases=1 bus1=107.2 bus2=107.0 rmatrix=[0.01515500883125074] xmatrix=[-2920875.131781669]
new Reactor.sh_48 phases=1 bus1=109.1 bus2=109.0 rmatrix=[-195324.5569811087] xmatrix=[-1420504.335768149]
new Reactor.sh_49 phases=1 bus1=110.1 bus2=110.0 rmatrix=[0.008797465205917237] xmatrix=[-1112714.32663825]
new Reactor.sh_50 phases=1 bus1=113.1 bus2=113.0 rmatrix=[0.002869587271050494] xmatrix=[-1797461.609693743]
new Reactor.sh_51 phases=3 bus1=135.1.2.3 bus2=135.0.0.0 rmatrix=[-227.1159340659401 | 1127.565816471957 -7073.191934989949 | 125.0114459607635 -3080.98909419975 -4172.318181291344] xmatrix=[-5470674.303922657 | 953285.378716394 -5390993.159287648 | -365242.9786366555 -1622507.947182636 -5529452.034672504]
new Reactor.sh_52 phases=3 bus1=152.1.2.3 bus2=152.0.0.0 rmatrix=[-809.1603249774128 | -2279.95293007447 -6424.172321474543 | -596.6094659018543 -1681.053133604677 -439.8916306396167] xmatrix=[-5387678.104381707 | -1864218.853786813 -5252767.723268605 | -1099212.482735463 -1374524.40554614 -5330404.422613046]
new Reactor.sh_53 phases=3 bus1=160r.1.2.3 bus2=160r.0.0.0 rmatrix=[0.07400854916889514 | 0.01288845290068829 -0.02577449166279657 | 0.04427019929359367 0.0130065190379223 0.06988853930540771] xmatrix=[-6157349.601978665 | -1256246.900640987 -6091899.052574358 | -2130547.560006505 -1570895.246520848 -6003196.90859571]
